          27
  -38.4572993220997     
 N        2.102499      1.023959     60.609660
 C        2.554137      2.287892     60.332657
 C        2.029992      3.268132     61.090458
 C        1.995812      4.614864     60.751347
 C        2.965110      5.043021     59.591587
 C        2.665157      6.199439     58.867776
 C        1.353854      6.686800     58.813864
 C        0.895165      7.783263     57.841288
 C       -0.498459      8.061177     57.762271
 C       -1.403819      7.632599     58.827104
 C       -0.937946      6.826254     59.862117
 C        0.391790      6.427040     59.888538
 C        0.754335      5.442236     60.856322
 C        3.768457      4.124518     59.103767
 C        3.679956      2.671559     59.499455
 H        2.303575      0.202149     60.109933
 H        1.577897      0.852300     61.395628
 H        1.074363      2.986023     61.753920
 H        3.349478      6.618291     58.169604
 H        1.760918      8.356252     57.558836
 H       -0.674434      9.027605     57.269635
 H       -2.378811      8.124719     58.928154
 H       -1.680107      6.316957     60.459680
 H       -0.126502      5.260945     61.710260
 H        4.151979      4.441634     58.151167
 H        4.023392      2.070201     58.675079
 H        4.586827      2.363658     60.320722
